/*--------------------------------*- C++ -*----------------------------------*\
| =========                 |                                                 |
| \\      /  F ield         | OpenFOAM: The Open Source CFD Toolbox           |
|  \\    /   O peration     | Version:  v1806                                 |
|   \\  /    A nd           | Web:      www.OpenFOAM.com                      |
|    \\/     M anipulation  |                                                 |
\*---------------------------------------------------------------------------*/
FoamFile
{
    version     2.0;
    format      ascii;
    class       dictionary;
    object      blockMeshDict;
}
// * * * * * * * * * * * * * * * * * * * * * * * * * * * * * * * * * * * * * //

scale   1;

// the updated blockMesh (openfoam.com) fails on some meshes with default options;
// it reports report inconsistent number of faces although the mesh is still OK.
// this happens where two 'wedge' blocks with different numbers of cells join in the same
// point/edge.
mergeType points;
checkFaceCorrespondence false;



vertices
(
    
    (-0.11364917 -0.03535534 -0.03535534) // 0
    (-0.11364917 -0.03535534 0.03535534) // 1
    (-0.11364917 0.03535534 0.03535534) // 2
    (-0.11364917 0.03535534 -0.03535534) // 3
    (-3.66132703 -1.13900930 -1.13900930) // 4
    (-3.66132703 -1.13900930 1.13900930) // 5
    (-3.66132703 1.13900930 1.13900930) // 6
    (-3.66132703 1.13900930 -1.13900930) // 7
    (-0.08000000 0.08485281 -0.08485281) // 8
    (-0.08000000 -0.08485281 -0.08485281) // 9
    (-3.20000000 1.69705627 -1.69705627) // 10
    (-3.20000000 -1.69705627 -1.69705627) // 11
    (-0.08000000 -0.08485281 0.08485281) // 12
    (-3.20000000 -1.69705627 1.69705627) // 13
    (-0.08000000 0.08485281 0.08485281) // 14
    (-3.20000000 1.69705627 1.69705627) // 15
    (0.00000000 0.14142136 -0.14142136) // 16
    (0.00000000 -0.14142136 -0.14142136) // 17
    (0.00000000 2.82842712 -2.82842712) // 18
    (0.00000000 -2.82842712 -2.82842712) // 19
    (0.00000000 -0.14142136 0.14142136) // 20
    (0.00000000 -2.82842712 2.82842712) // 21
    (0.00000000 0.14142136 0.14142136) // 22
    (0.00000000 2.82842712 2.82842712) // 23
);

blocks
(
    
    hex  ( 0 1 2 3 4 5 6 7 )  (10 10 10)  simpleGrading (1 1 1) // 0 
    hex  ( 0 3 8 9 4 7 10 11 )  (10 10 10)  simpleGrading (1 1 1) // 1 
    hex  ( 1 0 9 12 5 4 11 13 )  (10 10 10)  simpleGrading (1 1 1) // 2 
    hex  ( 2 1 12 14 6 5 13 15 )  (10 10 10)  simpleGrading (1 1 1) // 3 
    hex  ( 3 2 14 8 7 6 15 10 )  (10 10 10)  simpleGrading (1 1 1) // 4 
    hex  ( 9 8 16 17 11 10 18 19 )  (10 10 10)  simpleGrading (1 1 1) // 5 
    hex  ( 12 9 17 20 13 11 19 21 )  (10 10 10)  simpleGrading (1 1 1) // 6 
    hex  ( 14 12 20 22 15 13 21 23 )  (10 10 10)  simpleGrading (1 1 1) // 7 
    hex  ( 8 14 22 16 10 15 23 18 )  (10 10 10)  simpleGrading (1 1 1) // 8 
);

edges
(
    
    arc 0 1 (-0.11685020 -0.03535534 0.00000000)
    arc 1 2 (-0.11685020 0.00000000 0.03535534)
    arc 2 3 (-0.11685020 0.03535534 -0.00000000)
    arc 3 0 (-0.11685020 -0.00000000 -0.03535534)
    spline 7 4 ((-3.66132703 1.13900930 -1.13900930) (-3.72938891 0.89124416 -1.13900930) (-3.78070456 0.63947703 -1.13900930) (-3.81504354 0.38483843 -1.13900930) (-3.83225166 0.12847177 -1.13900930) (-3.83225166 -0.12847177 -1.13900930) (-3.81504354 -0.38483843 -1.13900930) (-3.78070456 -0.63947703 -1.13900930) (-3.72938891 -0.89124416 -1.13900930) (-3.66132703 -1.13900930 -1.13900930))
    spline 4 5 ((-3.66132703 -1.13900930 -1.13900930) (-3.72938891 -1.13900930 -0.89124416) (-3.78070456 -1.13900930 -0.63947703) (-3.81504354 -1.13900930 -0.38483843) (-3.83225166 -1.13900930 -0.12847177) (-3.83225166 -1.13900930 0.12847177) (-3.81504354 -1.13900930 0.38483843) (-3.78070456 -1.13900930 0.63947703) (-3.72938891 -1.13900930 0.89124416) (-3.66132703 -1.13900930 1.13900930))
    spline 5 6 ((-3.66132703 -1.13900930 1.13900930) (-3.72938891 -0.89124416 1.13900930) (-3.78070456 -0.63947703 1.13900930) (-3.81504354 -0.38483843 1.13900930) (-3.83225166 -0.12847177 1.13900930) (-3.83225166 0.12847177 1.13900930) (-3.81504354 0.38483843 1.13900930) (-3.78070456 0.63947703 1.13900930) (-3.72938891 0.89124416 1.13900930) (-3.66132703 1.13900930 1.13900930))
    spline 6 7 ((-3.66132703 1.13900930 1.13900930) (-3.72938891 1.13900930 0.89124416) (-3.78070456 1.13900930 0.63947703) (-3.81504354 1.13900930 0.38483843) (-3.83225166 1.13900930 0.12847177) (-3.83225166 1.13900930 -0.12847177) (-3.81504354 1.13900930 -0.38483843) (-3.78070456 1.13900930 -0.63947703) (-3.72938891 1.13900930 -0.89124416) (-3.66132703 1.13900930 -1.13900930))
    arc 3 8 (-0.09833150 0.06402295 -0.06402295)
    arc 8 9 (-0.08000000 -0.00000000 -0.12000000)
    arc 9 0 (-0.09833150 -0.06402295 -0.06402295)
    spline 7 10 ((-3.66132703 1.13900930 -1.13900930) (-3.61915357 1.20451805 -1.20451805) (-3.57463639 1.26924676 -1.26924676) (-3.52780432 1.33315353 -1.33315353) (-3.47868769 1.39619697 -1.39619697) (-3.42731831 1.45833624 -1.45833624) (-3.37372944 1.51953112 -1.51953112) (-3.31795579 1.57974197 -1.57974197) (-3.26003347 1.63892980 -1.63892980) (-3.20000000 1.69705627 -1.69705627))
    arc 10 11 (-3.20000000 -0.00000000 -2.40000000)
    spline 11 4 ((-3.20000000 -1.69705627 -1.69705627) (-3.26003347 -1.63892980 -1.63892980) (-3.31795579 -1.57974197 -1.57974197) (-3.37372944 -1.51953112 -1.51953112) (-3.42731831 -1.45833624 -1.45833624) (-3.47868769 -1.39619697 -1.39619697) (-3.52780432 -1.33315353 -1.33315353) (-3.57463639 -1.26924676 -1.26924676) (-3.61915357 -1.20451805 -1.20451805) (-3.66132703 -1.13900930 -1.13900930))
    arc 9 12 (-0.08000000 -0.12000000 -0.00000000)
    arc 12 1 (-0.09833150 -0.06402295 0.06402295)
    arc 11 13 (-3.20000000 -2.40000000 -0.00000000)
    spline 13 5 ((-3.20000000 -1.69705627 1.69705627) (-3.26003347 -1.63892980 1.63892980) (-3.31795579 -1.57974197 1.57974197) (-3.37372944 -1.51953112 1.51953112) (-3.42731831 -1.45833624 1.45833624) (-3.47868769 -1.39619697 1.39619697) (-3.52780432 -1.33315353 1.33315353) (-3.57463639 -1.26924676 1.26924676) (-3.61915357 -1.20451805 1.20451805) (-3.66132703 -1.13900930 1.13900930))
    arc 12 14 (-0.08000000 0.00000000 0.12000000)
    arc 14 2 (-0.09833150 0.06402295 0.06402295)
    arc 13 15 (-3.20000000 0.00000000 2.40000000)
    spline 15 6 ((-3.20000000 1.69705627 1.69705627) (-3.26003347 1.63892980 1.63892980) (-3.31795579 1.57974197 1.57974197) (-3.37372944 1.51953112 1.51953112) (-3.42731831 1.45833624 1.45833624) (-3.47868769 1.39619697 1.39619697) (-3.52780432 1.33315353 1.33315353) (-3.57463639 1.26924676 1.26924676) (-3.61915357 1.20451805 1.20451805) (-3.66132703 1.13900930 1.13900930))
    arc 14 8 (-0.08000000 0.12000000 0.00000000)
    arc 15 10 (-3.20000000 2.40000000 0.00000000)
    arc 16 17 (0.00000000 0.00000000 -0.20000000)
    spline 10 18 ((-3.20000000 1.69705627 -1.69705627) (-2.93618836 1.92078082 -1.92078082) (-2.64123442 2.12413285 -2.12413285) (-2.31826656 2.30495555 -2.30495555) (-1.97071032 2.46133103 -2.46133103) (-1.60225199 2.59160072 -2.59160072) (-1.21679958 2.69438293 -2.69438293) (-0.81844134 2.76858753 -2.76858753) (-0.41140241 2.81342745 -2.81342745) (0.00000000 2.82842712 -2.82842712))
    arc 18 19 (0.00000000 0.00000000 -4.00000000)
    spline 19 11 ((0.00000000 -2.82842712 -2.82842712) (-0.41140241 -2.81342745 -2.81342745) (-0.81844134 -2.76858753 -2.76858753) (-1.21679958 -2.69438293 -2.69438293) (-1.60225199 -2.59160072 -2.59160072) (-1.97071032 -2.46133103 -2.46133103) (-2.31826656 -2.30495555 -2.30495555) (-2.64123442 -2.12413285 -2.12413285) (-2.93618836 -1.92078082 -1.92078082) (-3.20000000 -1.69705627 -1.69705627))
    arc 17 20 (0.00000000 -0.20000000 -0.00000000)
    arc 19 21 (0.00000000 -4.00000000 -0.00000000)
    spline 21 13 ((0.00000000 -2.82842712 2.82842712) (-0.41140241 -2.81342745 2.81342745) (-0.81844134 -2.76858753 2.76858753) (-1.21679958 -2.69438293 2.69438293) (-1.60225199 -2.59160072 2.59160072) (-1.97071032 -2.46133103 2.46133103) (-2.31826656 -2.30495555 2.30495555) (-2.64123442 -2.12413285 2.12413285) (-2.93618836 -1.92078082 1.92078082) (-3.20000000 -1.69705627 1.69705627))
    arc 20 22 (0.00000000 -0.00000000 0.20000000)
    arc 21 23 (0.00000000 -0.00000000 4.00000000)
    spline 23 15 ((0.00000000 2.82842712 2.82842712) (-0.41140241 2.81342745 2.81342745) (-0.81844134 2.76858753 2.76858753) (-1.21679958 2.69438293 2.69438293) (-1.60225199 2.59160072 2.59160072) (-1.97071032 2.46133103 2.46133103) (-2.31826656 2.30495555 2.30495555) (-2.64123442 2.12413285 2.12413285) (-2.93618836 1.92078082 1.92078082) (-3.20000000 1.69705627 1.69705627))
    arc 22 16 (0.00000000 0.20000000 0.00000000)
    arc 23 18 (0.00000000 4.00000000 0.00000000)
);

boundary
(
    wall
    {
        type patch;
        faces
        (
            (0 1 2 3)
            (0 3 8 9)
            (1 0 9 12)
            (2 1 12 14)
            (3 2 14 8)
            (9 8 16 17)
            (12 9 17 20)
            (14 12 20 22)
            (8 14 22 16)
            
        );

    }

    inlet
    {
        type patch;
        faces
        (
            (4 5 6 7)
            (4 7 10 11)
            (5 4 11 13)
            (6 5 13 15)
            (7 6 15 10)
            (11 10 18 19)
            (13 11 19 21)
            (15 13 21 23)
            (10 15 23 18)
            
        );

    }
);

mergePatchPairs
();



faces
();


// ************************************************************************* //