/*--------------------------------*- C++ -*----------------------------------*\
| =========                 |                                                 |
| \\      /  F ield         | OpenFOAM: The Open Source CFD Toolbox           |
|  \\    /   O peration     | Version:  v1806                                 |
|   \\  /    A nd           | Web:      www.OpenFOAM.com                      |
|    \\/     M anipulation  |                                                 |
\*---------------------------------------------------------------------------*/
FoamFile
{
    version     2.0;
    format      ascii;
    class       dictionary;
    object      blockMeshDict;
}
// * * * * * * * * * * * * * * * * * * * * * * * * * * * * * * * * * * * * * //

scale   1;

// the updated blockMesh (openfoam.com) fails on some meshes with default options;
// it reports report inconsistent number of faces although the mesh is still OK.
// this happens where two 'wedge' blocks with different numbers of cells join in the same
// point/edge.
mergeType points;
checkFaceCorrespondence false;



vertices
(
    
    (-0.10750000 -0.04841229 0.05000000) // 0
    (-0.10750000 0.04841229 0.05000000) // 1
    (-0.10750000 0.04841229 -0.05000000) // 2
    (-0.10750000 -0.04841229 -0.05000000) // 3
    (-3.35132891 -1.47441859 1.61080240) // 4
    (-3.35132891 1.47441859 1.61080240) // 5
    (-3.35132891 1.47441859 -1.61080240) // 6
    (-3.35132891 -1.47441859 -1.61080240) // 7
    (-0.08000000 -0.08485281 0.08485281) // 8
    (-0.08000000 0.08485281 0.08485281) // 9
    (-2.35339362 -2.35339362 2.21880078) // 10
    (-2.35339362 2.35339362 2.21880078) // 11
);

blocks
(
    
    hex  ( 0 1 2 3 4 5 6 7 )  (10 10 10)  simpleGrading (1 1 1) // 0 
    hex  ( 8 9 1 0 10 11 5 4 )  (10 10 10)  simpleGrading (1 1 1) // 1 
);

edges
(
    
    arc 0 1 (-0.11364917 0.00000000 0.05000000)
    arc 1 2 (-0.11364917 0.05000000 0.00000000)
    arc 2 3 (-0.11364917 0.00000000 -0.05000000)
    arc 3 0 (-0.11364917 -0.05000000 0.00000000)
    spline 4 5 ((-3.35132891 -1.47441859 1.61080240) (-3.47273129 -1.15993664 1.61080240) (-3.56469518 -0.83562186 1.61080240) (-3.62644100 -0.50422347 1.61080240) (-3.65744532 -0.16855076 1.61080240) (-3.65744532 0.16855076 1.61080240) (-3.62644100 0.50422347 1.61080240) (-3.56469518 0.83562186 1.61080240) (-3.47273129 1.15993664 1.61080240) (-3.35132891 1.47441859 1.61080240))
    spline 5 6 ((-3.35132891 1.47441859 1.61080240) (-3.47273129 1.52782962 1.26723085) (-3.56469518 1.56828918 0.91291693) (-3.62644100 1.59545428 0.55086417) (-3.65744532 1.60909464 0.18414172) (-3.65744532 1.60909464 -0.18414172) (-3.62644100 1.59545428 -0.55086417) (-3.56469518 1.56828918 -0.91291693) (-3.47273129 1.52782962 -1.26723085) (-3.35132891 1.47441859 -1.61080240))
    spline 6 7 ((-3.35132891 1.47441859 -1.61080240) (-3.47273129 1.15993664 -1.61080240) (-3.56469518 0.83562186 -1.61080240) (-3.62644100 0.50422347 -1.61080240) (-3.65744532 0.16855076 -1.61080240) (-3.65744532 -0.16855076 -1.61080240) (-3.62644100 -0.50422347 -1.61080240) (-3.56469518 -0.83562186 -1.61080240) (-3.47273129 -1.15993664 -1.61080240) (-3.35132891 -1.47441859 -1.61080240))
    spline 7 4 ((-3.35132891 -1.47441859 -1.61080240) (-3.47273129 -1.52782962 -1.26723085) (-3.56469518 -1.56828918 -0.91291693) (-3.62644100 -1.59545428 -0.55086417) (-3.65744532 -1.60909464 -0.18414172) (-3.65744532 -1.60909464 0.18414172) (-3.62644100 -1.59545428 0.55086417) (-3.56469518 -1.56828918 0.91291693) (-3.47273129 -1.52782962 1.26723085) (-3.35132891 -1.47441859 1.61080240))
    arc 8 9 (-0.08000000 0.00000000 0.12000000)
    arc 9 1 (-0.09715586 0.06563460 0.06563460)
    arc 0 8 (-0.09715586 -0.06563460 0.06563460)
    arc 10 11 (-2.40000000 0.00000000 3.20000000)
    spline 11 5 ((-2.90581489 1.94373865 1.94373865))
    spline 4 10 ((-2.90581489 -1.94373865 1.94373865))
);

boundary
(
    wall
    {
        type patch;
        faces
        (
            (0 1 2 3)
            (8 9 1 0)
            
        );

    }

    inlet
    {
        type patch;
        faces
        (
            (4 5 6 7)
            (10 11 5 4)
            
        );

    }
);

mergePatchPairs
();



faces
();


// ************************************************************************* //