/*--------------------------------*- C++ -*----------------------------------*\
| =========                 |                                                 |
| \\      /  F ield         | OpenFOAM: The Open Source CFD Toolbox           |
|  \\    /   O peration     | Version:  v1806                                 |
|   \\  /    A nd           | Web:      www.OpenFOAM.com                      |
|    \\/     M anipulation  |                                                 |
\*---------------------------------------------------------------------------*/
FoamFile
{
    version     2.0;
    format      ascii;
    class       dictionary;
    object      blockMeshDict;
}
// * * * * * * * * * * * * * * * * * * * * * * * * * * * * * * * * * * * * * //

scale   1;

// the updated blockMesh (openfoam.com) fails on some meshes with default options;
// it reports report inconsistent number of faces although the mesh is still OK.
// this happens where two 'wedge' blocks with different numbers of cells join in the same
// point/edge.
mergeType points;
checkFaceCorrespondence false;



vertices
(
    
    (-0.11364917 -0.03535534 -0.03535534) // 0
    (-0.11364917 -0.03535534 0.03535534) // 1
    (-0.11364917 0.03535534 0.03535534) // 2
    (-0.11364917 0.03535534 -0.03535534) // 3
    (-1.46453081 -1.13900930 -1.13900930) // 4
    (-1.46453081 -1.13900930 1.13900930) // 5
    (-1.46453081 1.13900930 1.13900930) // 6
    (-1.46453081 1.13900930 -1.13900930) // 7
    (-0.08000000 0.08485281 -0.08485281) // 8
    (-0.08000000 -0.08485281 -0.08485281) // 9
    (-1.28000000 1.69705627 -1.69705627) // 10
    (-1.28000000 -1.69705627 -1.69705627) // 11
    (-0.08000000 -0.08485281 0.08485281) // 12
    (-1.28000000 -1.69705627 1.69705627) // 13
    (-0.08000000 0.08485281 0.08485281) // 14
    (-1.28000000 1.69705627 1.69705627) // 15
    (0.00000000 0.14142136 -0.14142136) // 16
    (0.00000000 -0.14142136 -0.14142136) // 17
    (0.00000000 2.82842712 -2.82842712) // 18
    (0.00000000 -2.82842712 -2.82842712) // 19
    (0.00000000 -0.14142136 0.14142136) // 20
    (0.00000000 -2.82842712 2.82842712) // 21
    (0.00000000 0.14142136 0.14142136) // 22
    (0.00000000 2.82842712 2.82842712) // 23
    (0.08000000 0.08485281 -0.08485281) // 24
    (0.08000000 -0.08485281 -0.08485281) // 25
    (1.94844750 2.47017735 -2.47017735) // 26
    (1.94844750 -2.47017735 -2.47017735) // 27
    (0.08000000 -0.08485281 0.08485281) // 28
    (1.94844750 -2.47017735 2.47017735) // 29
    (0.08000000 0.08485281 0.08485281) // 30
    (1.94844750 2.47017735 2.47017735) // 31
    (0.08000000 0.03265986 -0.03265986) // 32
    (0.08000000 -0.03265986 -0.03265986) // 33
    (3.46410162 1.41421356 -1.41421356) // 34
    (3.46410162 -1.41421356 -1.41421356) // 35
    (0.08000000 -0.03265986 0.03265986) // 36
    (3.46410162 -1.41421356 1.41421356) // 37
    (0.08000000 0.03265986 0.03265986) // 38
    (3.46410162 1.41421356 1.41421356) // 39
);

blocks
(
    
    hex  ( 0 1 2 3 4 5 6 7 )  (10 10 10)  simpleGrading (1 1 1) // 0 
    hex  ( 0 3 8 9 4 7 10 11 )  (10 10 10)  simpleGrading (1 1 1) // 1 
    hex  ( 1 0 9 12 5 4 11 13 )  (10 10 10)  simpleGrading (1 1 1) // 2 
    hex  ( 2 1 12 14 6 5 13 15 )  (10 10 10)  simpleGrading (1 1 1) // 3 
    hex  ( 3 2 14 8 7 6 15 10 )  (10 10 10)  simpleGrading (1 1 1) // 4 
    hex  ( 9 8 16 17 11 10 18 19 )  (10 10 10)  simpleGrading (1 1 1) // 5 
    hex  ( 12 9 17 20 13 11 19 21 )  (10 10 10)  simpleGrading (1 1 1) // 6 
    hex  ( 14 12 20 22 15 13 21 23 )  (10 10 10)  simpleGrading (1 1 1) // 7 
    hex  ( 8 14 22 16 10 15 23 18 )  (10 10 10)  simpleGrading (1 1 1) // 8 
    hex  ( 17 16 24 25 19 18 26 27 )  (10 10 10)  simpleGrading (1 1 1) // 9 
    hex  ( 20 17 25 28 21 19 27 29 )  (10 10 10)  simpleGrading (1 1 1) // 10 
    hex  ( 22 20 28 30 23 21 29 31 )  (10 10 10)  simpleGrading (1 1 1) // 11 
    hex  ( 16 22 30 24 18 23 31 26 )  (10 10 10)  simpleGrading (1 1 1) // 12 
    hex  ( 25 24 32 33 27 26 34 35 )  (10 10 10)  simpleGrading (1 1 1) // 13 
    hex  ( 28 25 33 36 29 27 35 37 )  (10 10 10)  simpleGrading (1 1 1) // 14 
    hex  ( 30 28 36 38 31 29 37 39 )  (10 10 10)  simpleGrading (1 1 1) // 15 
    hex  ( 24 30 38 32 26 31 39 34 )  (10 10 10)  simpleGrading (1 1 1) // 16 
    hex  ( 35 37 39 34 33 36 38 32 )  (10 10 10)  simpleGrading (1 1 1) // 17 
);

edges
(
    
    arc 0 1 (-0.11685020 -0.03535534 0.00000000)
    arc 1 2 (-0.11685020 0.00000000 0.03535534)
    arc 2 3 (-0.11685020 0.03535534 -0.00000000)
    arc 3 0 (-0.11685020 -0.00000000 -0.03535534)
    spline 7 4 ((-1.46453081 1.13900930 -1.13900930) (-1.49175556 0.89124416 -1.13900930) (-1.51228182 0.63947703 -1.13900930) (-1.52601742 0.38483843 -1.13900930) (-1.53290067 0.12847177 -1.13900930) (-1.53290067 -0.12847177 -1.13900930) (-1.52601742 -0.38483843 -1.13900930) (-1.51228182 -0.63947703 -1.13900930) (-1.49175556 -0.89124416 -1.13900930) (-1.46453081 -1.13900930 -1.13900930))
    spline 4 5 ((-1.46453081 -1.13900930 -1.13900930) (-1.49175556 -1.13900930 -0.89124416) (-1.51228182 -1.13900930 -0.63947703) (-1.52601742 -1.13900930 -0.38483843) (-1.53290067 -1.13900930 -0.12847177) (-1.53290067 -1.13900930 0.12847177) (-1.52601742 -1.13900930 0.38483843) (-1.51228182 -1.13900930 0.63947703) (-1.49175556 -1.13900930 0.89124416) (-1.46453081 -1.13900930 1.13900930))
    spline 5 6 ((-1.46453081 -1.13900930 1.13900930) (-1.49175556 -0.89124416 1.13900930) (-1.51228182 -0.63947703 1.13900930) (-1.52601742 -0.38483843 1.13900930) (-1.53290067 -0.12847177 1.13900930) (-1.53290067 0.12847177 1.13900930) (-1.52601742 0.38483843 1.13900930) (-1.51228182 0.63947703 1.13900930) (-1.49175556 0.89124416 1.13900930) (-1.46453081 1.13900930 1.13900930))
    spline 6 7 ((-1.46453081 1.13900930 1.13900930) (-1.49175556 1.13900930 0.89124416) (-1.51228182 1.13900930 0.63947703) (-1.52601742 1.13900930 0.38483843) (-1.53290067 1.13900930 0.12847177) (-1.53290067 1.13900930 -0.12847177) (-1.52601742 1.13900930 -0.38483843) (-1.51228182 1.13900930 -0.63947703) (-1.49175556 1.13900930 -0.89124416) (-1.46453081 1.13900930 -1.13900930))
    arc 3 8 (-0.09833150 0.06402295 -0.06402295)
    arc 8 9 (-0.08000000 -0.00000000 -0.12000000)
    arc 9 0 (-0.09833150 -0.06402295 -0.06402295)
    spline 7 10 ((-1.46453081 1.13900930 -1.13900930) (-1.44766143 1.20451805 -1.20451805) (-1.42985456 1.26924676 -1.26924676) (-1.41112173 1.33315353 -1.33315353) (-1.39147508 1.39619697 -1.39619697) (-1.37092732 1.45833624 -1.45833624) (-1.34949178 1.51953112 -1.51953112) (-1.32718232 1.57974197 -1.57974197) (-1.30401339 1.63892980 -1.63892980) (-1.28000000 1.69705627 -1.69705627))
    arc 10 11 (-1.28000000 -0.00000000 -2.40000000)
    spline 11 4 ((-1.28000000 -1.69705627 -1.69705627) (-1.30401339 -1.63892980 -1.63892980) (-1.32718232 -1.57974197 -1.57974197) (-1.34949178 -1.51953112 -1.51953112) (-1.37092732 -1.45833624 -1.45833624) (-1.39147508 -1.39619697 -1.39619697) (-1.41112173 -1.33315353 -1.33315353) (-1.42985456 -1.26924676 -1.26924676) (-1.44766143 -1.20451805 -1.20451805) (-1.46453081 -1.13900930 -1.13900930))
    arc 9 12 (-0.08000000 -0.12000000 -0.00000000)
    arc 12 1 (-0.09833150 -0.06402295 0.06402295)
    arc 11 13 (-1.28000000 -2.40000000 -0.00000000)
    spline 13 5 ((-1.28000000 -1.69705627 1.69705627) (-1.30401339 -1.63892980 1.63892980) (-1.32718232 -1.57974197 1.57974197) (-1.34949178 -1.51953112 1.51953112) (-1.37092732 -1.45833624 1.45833624) (-1.39147508 -1.39619697 1.39619697) (-1.41112173 -1.33315353 1.33315353) (-1.42985456 -1.26924676 1.26924676) (-1.44766143 -1.20451805 1.20451805) (-1.46453081 -1.13900930 1.13900930))
    arc 12 14 (-0.08000000 0.00000000 0.12000000)
    arc 14 2 (-0.09833150 0.06402295 0.06402295)
    arc 13 15 (-1.28000000 0.00000000 2.40000000)
    spline 15 6 ((-1.28000000 1.69705627 1.69705627) (-1.30401339 1.63892980 1.63892980) (-1.32718232 1.57974197 1.57974197) (-1.34949178 1.51953112 1.51953112) (-1.37092732 1.45833624 1.45833624) (-1.39147508 1.39619697 1.39619697) (-1.41112173 1.33315353 1.33315353) (-1.42985456 1.26924676 1.26924676) (-1.44766143 1.20451805 1.20451805) (-1.46453081 1.13900930 1.13900930))
    arc 14 8 (-0.08000000 0.12000000 0.00000000)
    arc 15 10 (-1.28000000 2.40000000 0.00000000)
    arc 16 17 (0.00000000 0.00000000 -0.20000000)
    spline 10 18 ((-1.28000000 1.69705627 -1.69705627) (-1.17447534 1.92078082 -1.92078082) (-1.05649377 2.12413285 -2.12413285) (-0.92730663 2.30495555 -2.30495555) (-0.78828413 2.46133103 -2.46133103) (-0.64090079 2.59160072 -2.59160072) (-0.48671983 2.69438293 -2.69438293) (-0.32737654 2.76858753 -2.76858753) (-0.16456097 2.81342745 -2.81342745) (0.00000000 2.82842712 -2.82842712))
    arc 18 19 (0.00000000 0.00000000 -4.00000000)
    spline 19 11 ((0.00000000 -2.82842712 -2.82842712) (-0.16456097 -2.81342745 -2.81342745) (-0.32737654 -2.76858753 -2.76858753) (-0.48671983 -2.69438293 -2.69438293) (-0.64090079 -2.59160072 -2.59160072) (-0.78828413 -2.46133103 -2.46133103) (-0.92730663 -2.30495555 -2.30495555) (-1.05649377 -2.12413285 -2.12413285) (-1.17447534 -1.92078082 -1.92078082) (-1.28000000 -1.69705627 -1.69705627))
    arc 17 20 (0.00000000 -0.20000000 -0.00000000)
    arc 19 21 (0.00000000 -4.00000000 -0.00000000)
    spline 21 13 ((0.00000000 -2.82842712 2.82842712) (-0.16456097 -2.81342745 2.81342745) (-0.32737654 -2.76858753 2.76858753) (-0.48671983 -2.69438293 2.69438293) (-0.64090079 -2.59160072 2.59160072) (-0.78828413 -2.46133103 2.46133103) (-0.92730663 -2.30495555 2.30495555) (-1.05649377 -2.12413285 2.12413285) (-1.17447534 -1.92078082 1.92078082) (-1.28000000 -1.69705627 1.69705627))
    arc 20 22 (0.00000000 -0.00000000 0.20000000)
    arc 21 23 (0.00000000 -0.00000000 4.00000000)
    spline 23 15 ((0.00000000 2.82842712 2.82842712) (-0.16456097 2.81342745 2.81342745) (-0.32737654 2.76858753 2.76858753) (-0.48671983 2.69438293 2.69438293) (-0.64090079 2.59160072 2.59160072) (-0.78828413 2.46133103 2.46133103) (-0.92730663 2.30495555 2.30495555) (-1.05649377 2.12413285 2.12413285) (-1.17447534 1.92078082 1.92078082) (-1.28000000 1.69705627 1.69705627))
    arc 22 16 (0.00000000 0.20000000 0.00000000)
    arc 23 18 (0.00000000 4.00000000 0.00000000)
    arc 24 25 (0.08000000 0.00000000 -0.12000000)
    spline 18 26 ((0.00000000 2.82842712 -2.82842712) (0.22600389 2.82390884 -2.82390884) (0.45128572 2.81036841 -2.81036841) (0.67512573 2.78784910 -2.78784910) (0.89680878 2.75642286 -2.75642286) (1.11562659 2.71619010 -2.71619010) (1.33088008 2.66727934 -2.66727934) (1.54188153 2.60984687 -2.60984687) (1.74795680 2.54407616 -2.54407616) (1.94844750 2.47017735 -2.47017735))
    arc 26 27 (1.94844750 0.00000000 -3.49335832)
    spline 27 19 ((1.94844750 -2.47017735 -2.47017735) (1.74795680 -2.54407616 -2.54407616) (1.54188153 -2.60984687 -2.60984687) (1.33088008 -2.66727934 -2.66727934) (1.11562659 -2.71619010 -2.71619010) (0.89680878 -2.75642286 -2.75642286) (0.67512573 -2.78784910 -2.78784910) (0.45128572 -2.81036841 -2.81036841) (0.22600389 -2.82390884 -2.82390884) (0.00000000 -2.82842712 -2.82842712))
    arc 25 28 (0.08000000 -0.12000000 -0.00000000)
    arc 27 29 (1.94844750 -3.49335832 -0.00000000)
    spline 29 21 ((1.94844750 -2.47017735 2.47017735) (1.74795680 -2.54407616 2.54407616) (1.54188153 -2.60984687 2.60984687) (1.33088008 -2.66727934 2.66727934) (1.11562659 -2.71619010 2.71619010) (0.89680878 -2.75642286 2.75642286) (0.67512573 -2.78784910 2.78784910) (0.45128572 -2.81036841 2.81036841) (0.22600389 -2.82390884 2.82390884) (0.00000000 -2.82842712 2.82842712))
    arc 28 30 (0.08000000 -0.00000000 0.12000000)
    arc 29 31 (1.94844750 -0.00000000 3.49335832)
    spline 31 23 ((1.94844750 2.47017735 2.47017735) (1.74795680 2.54407616 2.54407616) (1.54188153 2.60984687 2.60984687) (1.33088008 2.66727934 2.66727934) (1.11562659 2.71619010 2.71619010) (0.89680878 2.75642286 2.75642286) (0.67512573 2.78784910 2.78784910) (0.45128572 2.81036841 2.81036841) (0.22600389 2.82390884 2.82390884) (0.00000000 2.82842712 2.82842712))
    arc 30 24 (0.08000000 0.12000000 0.00000000)
    arc 31 26 (1.94844750 3.49335832 0.00000000)
    spline 26 34 ((1.94844750 2.47017735 -2.47017735) (2.15382461 2.38338410 -2.38338410) (2.35149561 2.28806342 -2.28806342) (2.54075327 2.18455634 -2.18455634) (2.72092046 2.07323321 -2.07323321) (2.89135254 1.95449232 -1.95449232) (3.05143975 1.82875852 -1.82875852) (3.20060931 1.69648166 -1.69648166) (3.33832751 1.55813501 -1.55813501) (3.46410162 1.41421356 -1.41421356))
    spline 35 27 ((3.46410162 -1.41421356 -1.41421356) (3.33832751 -1.55813501 -1.55813501) (3.20060931 -1.69648166 -1.69648166) (3.05143975 -1.82875852 -1.82875852) (2.89135254 -1.95449232 -1.95449232) (2.72092046 -2.07323321 -2.07323321) (2.54075327 -2.18455634 -2.18455634) (2.35149561 -2.28806342 -2.28806342) (2.15382461 -2.38338410 -2.38338410) (1.94844750 -2.47017735 -2.47017735))
    spline 37 29 ((3.46410162 -1.41421356 1.41421356) (3.33832751 -1.55813501 1.55813501) (3.20060931 -1.69648166 1.69648166) (3.05143975 -1.82875852 1.82875852) (2.89135254 -1.95449232 1.95449232) (2.72092046 -2.07323321 2.07323321) (2.54075327 -2.18455634 2.18455634) (2.35149561 -2.28806342 2.28806342) (2.15382461 -2.38338410 2.38338410) (1.94844750 -2.47017735 2.47017735))
    spline 39 31 ((3.46410162 1.41421356 1.41421356) (3.33832751 1.55813501 1.55813501) (3.20060931 1.69648166 1.69648166) (3.05143975 1.82875852 1.82875852) (2.89135254 1.95449232 1.95449232) (2.72092046 2.07323321 2.07323321) (2.54075327 2.18455634 2.18455634) (2.35149561 2.28806342 2.28806342) (2.15382461 2.38338410 2.38338410) (1.94844750 2.47017735 2.47017735))
    spline 35 34 ((3.46410162 -1.41421356 -1.41421356) (3.57291911 -1.11096763 -1.41421356) (3.65524612 -0.79948471 -1.41421356) (3.71047227 -0.48207423 -1.41421356) (3.73818809 -0.16108953 -1.41421356) (3.73818809 0.16108953 -1.41421356) (3.71047227 0.48207423 -1.41421356) (3.65524612 0.79948471 -1.41421356) (3.57291911 1.11096763 -1.41421356) (3.46410162 1.41421356 -1.41421356))
    spline 37 35 ((3.46410162 -1.41421356 1.41421356) (3.57291911 -1.41421356 1.11096763) (3.65524612 -1.41421356 0.79948471) (3.71047227 -1.41421356 0.48207423) (3.73818809 -1.41421356 0.16108953) (3.73818809 -1.41421356 -0.16108953) (3.71047227 -1.41421356 -0.48207423) (3.65524612 -1.41421356 -0.79948471) (3.57291911 -1.41421356 -1.11096763) (3.46410162 -1.41421356 -1.41421356))
    spline 39 37 ((3.46410162 1.41421356 1.41421356) (3.57291911 1.11096763 1.41421356) (3.65524612 0.79948471 1.41421356) (3.71047227 0.48207423 1.41421356) (3.73818809 0.16108953 1.41421356) (3.73818809 -0.16108953 1.41421356) (3.71047227 -0.48207423 1.41421356) (3.65524612 -0.79948471 1.41421356) (3.57291911 -1.11096763 1.41421356) (3.46410162 -1.41421356 1.41421356))
    spline 34 39 ((3.46410162 1.41421356 -1.41421356) (3.57291911 1.41421356 -1.11096763) (3.65524612 1.41421356 -0.79948471) (3.71047227 1.41421356 -0.48207423) (3.73818809 1.41421356 -0.16108953) (3.73818809 1.41421356 0.16108953) (3.71047227 1.41421356 0.48207423) (3.65524612 1.41421356 0.79948471) (3.57291911 1.41421356 1.11096763) (3.46410162 1.41421356 1.41421356))
);

boundary
(
    inlet
    {
        type patch;
        faces
        (
            (4 5 6 7)
            (4 7 10 11)
            (5 4 11 13)
            (6 5 13 15)
            (7 6 15 10)
            (11 10 18 19)
            (13 11 19 21)
            (15 13 21 23)
            (10 15 23 18)
            
        );

    }

    outlet
    {
        type patch;
        faces
        (
            (19 18 26 27)
            (21 19 27 29)
            (23 21 29 31)
            (18 23 31 26)
            (27 26 34 35)
            (29 27 35 37)
            (31 29 37 39)
            (26 31 39 34)
            (35 37 39 34)
            
        );

    }

    wall
    {
        type patch;
        faces
        (
            (0 1 2 3)
            (0 3 8 9)
            (1 0 9 12)
            (2 1 12 14)
            (3 2 14 8)
            (9 8 16 17)
            (12 9 17 20)
            (14 12 20 22)
            (8 14 22 16)
            (17 16 24 25)
            (20 17 25 28)
            (22 20 28 30)
            (16 22 30 24)
            (25 24 32 33)
            (28 25 33 36)
            (30 28 36 38)
            (24 30 38 32)
            (33 36 38 32)
            
        );

    }
);

mergePatchPairs
();



faces
();


// ************************************************************************* //