/*--------------------------------*- C++ -*----------------------------------*\
| =========                 |                                                 |
| \\      /  F ield         | OpenFOAM: The Open Source CFD Toolbox           |
|  \\    /   O peration     | Version:  v1806                                 |
|   \\  /    A nd           | Web:      www.OpenFOAM.com                      |
|    \\/     M anipulation  |                                                 |
\*---------------------------------------------------------------------------*/
FoamFile
{
    version     2.0;
    format      ascii;
    class       dictionary;
    object      blockMeshDict;
}
// * * * * * * * * * * * * * * * * * * * * * * * * * * * * * * * * * * * * * //

scale   1;

// the updated blockMesh (openfoam.com) fails on some meshes with default options;
// it reports report inconsistent number of faces although the mesh is still OK.
// this happens where two 'wedge' blocks with different numbers of cells join in the same
// point/edge.
mergeType points;
checkFaceCorrespondence false;



vertices
(
    
    (-0.10750000 -0.04841229 0.05000000) // 0
    (-0.10750000 0.04841229 0.05000000) // 1
    (-0.10750000 0.04841229 -0.05000000) // 2
    (-0.10750000 -0.04841229 -0.05000000) // 3
    (-3.35132891 -1.47441859 1.61080240) // 4
    (-3.35132891 1.47441859 1.61080240) // 5
    (-3.35132891 1.47441859 -1.61080240) // 6
    (-3.35132891 -1.47441859 -1.61080240) // 7
    (-0.04000000 -0.11313708 0.11313708) // 8
    (-0.04000000 0.11313708 0.11313708) // 9
    (-0.11364917 0.03535534 0.03535534) // 10
    (-0.11364917 -0.03535534 0.03535534) // 11
    (-3.20000000 -1.69705627 1.69705627) // 12
    (-3.20000000 1.69705627 1.69705627) // 13
    (-3.66132703 1.13900930 1.13900930) // 14
    (-3.66132703 -1.13900930 1.13900930) // 15
);

blocks
(
    
    hex  ( 0 1 2 3 4 5 6 7 )  (10 10 10)  simpleGrading (1 1 1) // 0 
    hex  ( 8 9 10 11 12 13 14 15 )  (10 10 10)  simpleGrading (1 1 1) // 1 
);

edges
(
    
    arc 0 1 (-0.11364917 0.00000000 0.05000000)
    arc 1 2 (-0.11364917 0.05000000 0.00000000)
    arc 2 3 (-0.11364917 0.00000000 -0.05000000)
    arc 3 0 (-0.11364917 -0.05000000 0.00000000)
    spline 4 5 ((-3.35132891 -1.47441859 1.61080240) (-3.47273129 -1.15993664 1.61080240) (-3.56469518 -0.83562186 1.61080240) (-3.62644100 -0.50422347 1.61080240) (-3.65744532 -0.16855076 1.61080240) (-3.65744532 0.16855076 1.61080240) (-3.62644100 0.50422347 1.61080240) (-3.56469518 0.83562186 1.61080240) (-3.47273129 1.15993664 1.61080240) (-3.35132891 1.47441859 1.61080240))
    spline 5 6 ((-3.35132891 1.47441859 1.61080240) (-3.47273129 1.52782962 1.26723085) (-3.56469518 1.56828918 0.91291693) (-3.62644100 1.59545428 0.55086417) (-3.65744532 1.60909464 0.18414172) (-3.65744532 1.60909464 -0.18414172) (-3.62644100 1.59545428 -0.55086417) (-3.56469518 1.56828918 -0.91291693) (-3.47273129 1.52782962 -1.26723085) (-3.35132891 1.47441859 -1.61080240))
    spline 6 7 ((-3.35132891 1.47441859 -1.61080240) (-3.47273129 1.15993664 -1.61080240) (-3.56469518 0.83562186 -1.61080240) (-3.62644100 0.50422347 -1.61080240) (-3.65744532 0.16855076 -1.61080240) (-3.65744532 -0.16855076 -1.61080240) (-3.62644100 -0.50422347 -1.61080240) (-3.56469518 -0.83562186 -1.61080240) (-3.47273129 -1.15993664 -1.61080240) (-3.35132891 -1.47441859 -1.61080240))
    spline 7 4 ((-3.35132891 -1.47441859 -1.61080240) (-3.47273129 -1.52782962 -1.26723085) (-3.56469518 -1.56828918 -0.91291693) (-3.62644100 -1.59545428 -0.55086417) (-3.65744532 -1.60909464 -0.18414172) (-3.65744532 -1.60909464 0.18414172) (-3.62644100 -1.59545428 0.55086417) (-3.56469518 -1.56828918 0.91291693) (-3.47273129 -1.52782962 1.26723085) (-3.35132891 -1.47441859 1.61080240))
    arc 8 9 (-0.04000000 0.00000000 0.16000000)
    arc 9 10 (-0.08190352 0.08302786 0.08302786)
    arc 10 11 (-0.11364917 0.00000000 0.05000000)
    arc 11 8 (-0.08190352 -0.08302786 0.08302786)
    arc 12 13 (-3.20000000 0.00000000 2.40000000)
    spline 13 14 ((-3.20000000 1.69705627 1.69705627) (-3.26003347 1.63892980 1.63892980) (-3.31795579 1.57974197 1.57974197) (-3.37372944 1.51953112 1.51953112) (-3.42731831 1.45833624 1.45833624) (-3.47868769 1.39619697 1.39619697) (-3.52780432 1.33315353 1.33315353) (-3.57463639 1.26924676 1.26924676) (-3.61915357 1.20451805 1.20451805) (-3.66132703 1.13900930 1.13900930))
    arc 14 15 (-3.66132703 0.00000000 1.61080240)
    spline 15 12 ((-3.66132703 -1.13900930 1.13900930) (-3.61915357 -1.20451805 1.20451805) (-3.57463639 -1.26924676 1.26924676) (-3.52780432 -1.33315353 1.33315353) (-3.47868769 -1.39619697 1.39619697) (-3.42731831 -1.45833624 1.45833624) (-3.37372944 -1.51953112 1.51953112) (-3.31795579 -1.57974197 1.57974197) (-3.26003347 -1.63892980 1.63892980) (-3.20000000 -1.69705627 1.69705627))
);

boundary
(
    inlet
    {
        type patch;
        faces
        (
            (4 5 6 7)
            (12 13 14 15)
            
        );

    }

    wall
    {
        type patch;
        faces
        (
            (0 1 2 3)
            (8 9 10 11)
            
        );

    }
);

mergePatchPairs
();



faces
();


// ************************************************************************* //